Version 4
SHEET 1 2936 1268
WIRE 2272 -64 2176 -64
WIRE 2432 -64 2272 -64
WIRE 2720 -64 2512 -64
WIRE 2816 -64 2720 -64
WIRE 2880 -64 2816 -64
WIRE 1616 -48 1456 -48
WIRE 1744 -48 1616 -48
WIRE 992 -32 352 -32
WIRE 1744 -16 1744 -48
WIRE 2176 0 2176 -64
WIRE 2272 0 2272 -64
WIRE 1456 16 1456 -48
WIRE 576 64 176 64
WIRE 672 64 576 64
WIRE 944 64 880 64
WIRE 992 64 992 -32
WIRE 992 64 944 64
WIRE 352 80 352 -32
WIRE 176 96 176 64
WIRE 672 96 512 96
WIRE 1088 96 880 96
WIRE 1200 96 1088 96
WIRE 1360 96 1280 96
WIRE 1408 96 1360 96
WIRE 672 128 640 128
WIRE 1456 128 1456 112
WIRE 1456 128 880 128
WIRE 672 160 576 160
WIRE 1088 160 880 160
WIRE 1136 160 1088 160
WIRE 1456 160 1456 128
WIRE 1552 160 1456 160
WIRE 1952 160 1552 160
WIRE 2176 160 2176 64
WIRE 2176 160 2016 160
WIRE 2720 160 2720 -64
WIRE 2880 160 2880 -64
WIRE 352 192 352 160
WIRE 432 192 352 192
WIRE 512 192 512 96
WIRE 512 192 432 192
WIRE 576 192 576 160
WIRE 672 192 576 192
WIRE 1104 192 880 192
WIRE 1952 192 1952 160
WIRE 2016 192 2016 160
WIRE 176 224 176 176
WIRE 576 224 576 192
WIRE 672 224 576 224
WIRE 928 224 880 224
WIRE 976 224 928 224
WIRE 352 240 352 192
WIRE 576 256 576 224
WIRE 672 256 576 256
WIRE 944 256 880 256
WIRE 1744 320 1744 64
WIRE 1824 320 1744 320
WIRE 1952 320 1952 272
WIRE 1952 320 1824 320
WIRE 2016 320 2016 272
WIRE 2272 320 2272 64
WIRE 2272 320 2016 320
WIRE 640 336 640 128
WIRE 672 336 640 336
WIRE 816 336 672 336
WIRE 944 336 944 256
WIRE 944 336 816 336
WIRE 1456 336 1456 160
WIRE 1744 352 1744 320
WIRE 2176 352 2176 160
WIRE 2272 352 2272 320
WIRE 352 368 352 320
WIRE 576 368 576 256
WIRE 1136 416 1136 160
WIRE 1184 416 1136 416
WIRE 1360 416 1264 416
WIRE 1408 416 1360 416
WIRE 880 432 816 432
WIRE 928 432 880 432
WIRE 928 480 928 432
WIRE 1104 480 1104 192
WIRE 1456 480 1456 432
WIRE 1456 480 1104 480
WIRE 2176 480 2176 416
WIRE 2272 480 2272 416
WIRE 2272 480 2176 480
WIRE 2720 480 2720 224
WIRE 2720 480 2272 480
WIRE 2800 480 2720 480
WIRE 2880 480 2880 240
WIRE 2880 480 2800 480
WIRE 2800 528 2800 480
WIRE 1456 544 1456 480
WIRE 1744 544 1744 432
WIRE 672 592 672 336
WIRE 752 592 672 592
WIRE 880 592 816 592
WIRE 928 592 928 560
WIRE 928 592 880 592
WIRE 928 624 928 592
WIRE 928 752 928 704
FLAG 176 224 0
FLAG 352 368 0
FLAG 576 64 VCC
FLAG 576 368 0
FLAG 944 64 REF
FLAG 432 192 duty
FLAG 816 336 comp
FLAG 928 224 sw
FLAG 1088 96 outa
FLAG 1088 160 outb
FLAG 1744 544 0
FLAG 2800 528 0
FLAG 2816 -64 out
FLAG 1456 544 0
FLAG 1616 -48 dc
FLAG 1360 96 Gate_T
FLAG 1360 416 Gate_B
FLAG 928 752 0
FLAG 880 592 dlim
FLAG 880 432 REF
FLAG 1552 160 mid1
FLAG 1824 320 mid2
SYMBOL voltage 176 80 R0
WINDOW 123 0 0 Left 0
WINDOW 39 0 0 Left 0
SYMATTR InstName V2
SYMATTR Value 15
SYMBOL res 336 64 R0
SYMATTR InstName R1
SYMATTR Value 10k
SYMBOL res 336 224 R0
SYMATTR InstName R2
SYMATTR Value 6.5k
SYMBOL MyPWMC2 752 160 R0
WINDOW 38 53 -118 Bottom 2
SYMATTR InstName U1
SYMBOL res 1296 80 R90
WINDOW 0 -31 61 VBottom 2
WINDOW 3 -29 67 VTop 2
SYMATTR InstName R3
SYMATTR Value 10
SYMBOL res 1280 400 R90
WINDOW 0 -5 55 VBottom 2
WINDOW 3 32 56 VTop 2
SYMATTR InstName R4
SYMATTR Value 10
SYMBOL voltage 1744 -32 R0
WINDOW 123 0 0 Left 2
WINDOW 39 0 0 Left 2
SYMATTR InstName V3
SYMATTR Value 15
SYMBOL nmos 1408 16 R0
SYMATTR InstName M1
SYMATTR Value IRFZ48N
SYMBOL cap 2704 160 R0
WINDOW 0 -57 7 Left 2
WINDOW 3 -60 42 Left 2
SYMATTR InstName C1
SYMATTR Value 100µ
SYMATTR SpiceLine Rser=0.15
SYMBOL res 2864 144 R0
SYMATTR InstName R7
SYMATTR Value 1
SYMBOL ind2 2416 -48 R270
WINDOW 0 32 56 VTop 2
WINDOW 3 5 56 VBottom 2
SYMATTR InstName L1
SYMATTR Value 50µ
SYMATTR Type ind
SYMATTR SpiceLine Rser=0.05
SYMBOL nmos 1408 336 R0
SYMATTR InstName M2
SYMATTR Value IRFZ48N
SYMBOL res 912 608 R0
SYMATTR InstName R5
SYMATTR Value 300
SYMBOL res 912 464 R0
SYMATTR InstName R6
SYMATTR Value 300
SYMBOL diode 752 608 R270
WINDOW 0 32 32 VTop 2
WINDOW 3 0 32 VBottom 2
SYMATTR InstName D1
SYMBOL voltage 1744 336 R0
WINDOW 123 0 0 Left 2
WINDOW 39 0 0 Left 2
SYMATTR InstName V1
SYMATTR Value 15
SYMBOL ind2 1936 176 R0
WINDOW 0 -44 29 Left 2
WINDOW 3 -42 72 Left 2
SYMATTR InstName Lpri
SYMATTR Value 1m
SYMATTR Type ind
SYMBOL ind2 2032 288 R180
WINDOW 0 -46 80 Left 2
WINDOW 3 -41 43 Left 2
SYMATTR InstName Lsec
SYMATTR Value 1m
SYMATTR Type ind
SYMBOL schottky 2192 64 R180
WINDOW 0 24 64 Left 2
WINDOW 3 47 33 Left 2
SYMATTR InstName D2
SYMATTR Value MBR735
SYMATTR Description Diode
SYMATTR Type diode
SYMBOL schottky 2192 416 R180
WINDOW 0 24 64 Left 2
WINDOW 3 47 29 Left 2
SYMATTR InstName D3
SYMATTR Value MBR735
SYMATTR Description Diode
SYMATTR Type diode
SYMBOL schottky 2288 416 R180
WINDOW 0 24 64 Left 2
WINDOW 3 -116 36 Left 2
SYMATTR InstName D4
SYMATTR Value MBR735
SYMATTR Description Diode
SYMATTR Type diode
SYMBOL schottky 2288 64 R180
WINDOW 0 24 64 Left 2
WINDOW 3 -120 32 Left 2
SYMATTR InstName D5
SYMATTR Value MBR735
SYMATTR Description Diode
SYMATTR Type diode
TEXT 648 -72 Left 2 !.tran 0 1m 0 0.1u uic
TEXT 2592 232 Left 2 ;ESR=0.15
TEXT 2424 -16 Left 2 ;ESR=0.05
TEXT 976 584 Left 2 ;Duty Cycle limiting circuit
TEXT 1920 104 Left 2 !k1 Lpri Lsec 1
