Version 4
SHEET 1 880 680
WIRE 144 -48 112 -48
WIRE 256 -48 224 -48
WIRE -64 48 -96 48
WIRE 16 48 -64 48
WIRE 112 48 112 -48
WIRE 112 48 96 48
WIRE 160 48 112 48
WIRE 256 64 256 -48
WIRE 256 64 208 64
WIRE 304 64 256 64
WIRE 384 64 304 64
WIRE 160 80 112 80
WIRE -96 96 -96 48
WIRE 112 144 112 80
WIRE -96 224 -96 176
FLAG 112 144 0
FLAG -96 224 0
FLAG -64 48 in
FLAG 304 64 out
SYMBOL MyOTA 192 64 M180
WINDOW 39 68 -79 Center 2
WINDOW 40 69 -109 Center 2
SYMATTR InstName U1
SYMBOL res 112 32 R90
WINDOW 0 0 56 VBottom 2
WINDOW 3 32 56 VTop 2
SYMATTR InstName R1
SYMATTR Value 10k
SYMBOL res 240 -64 R90
WINDOW 0 0 56 VBottom 2
WINDOW 3 32 56 VTop 2
SYMATTR InstName R2
SYMATTR Value 50k
SYMBOL voltage -96 80 R0
WINDOW 123 0 0 Left 0
WINDOW 39 0 0 Left 0
SYMATTR InstName V1
SYMATTR Value SINE(0 1 1k)
TEXT -98 -40 Left 2 !.tran 5m
