Version 4
SHEET 1 880 680
WIRE -64 48 -96 48
WIRE 160 48 -64 48
WIRE 304 64 208 64
WIRE 320 64 304 64
WIRE 384 64 320 64
WIRE 160 80 112 80
WIRE -96 96 -96 48
WIRE 320 112 320 64
WIRE 112 144 112 80
WIRE -96 224 -96 176
WIRE 320 224 320 192
FLAG 112 144 0
FLAG -96 224 0
FLAG -64 48 in
FLAG 304 64 out
FLAG 320 224 0
SYMBOL MyOTA 192 64 R0
WINDOW 39 68 -79 Center 2
WINDOW 40 69 -109 Center 2
SYMATTR InstName U1
SYMBOL voltage -96 80 R0
WINDOW 123 30 91 Left 2
WINDOW 39 0 0 Left 0
SYMATTR Value2 AC 1
SYMATTR InstName V1
SYMATTR Value ""
SYMBOL res 304 96 R0
SYMATTR InstName R1
SYMATTR Value {RL}
TEXT -104 -128 Left 2 !.ac dec 101 1 10meg
TEXT -152 304 Left 2 !.step param RL list 1000meg 1meg 300k   100k 30k
